/*--------------------------------*- C++ -*----------------------------------*\
| =========                 |                                                 |
| \\      /  F ield         | OpenFOAM: The Open Source CFD Toolbox           |
|  \\    /   O peration     | Version:  2412                                  |
|   \\  /    A nd           | Website:  www.openfoam.com                      |
|    \\/     M anipulation  |                                                 |
\*---------------------------------------------------------------------------*/
FoamFile
{
    version     2.0;
    format      ascii;
    arch        "LSB;label=32;scalar=64";
    class       polyBoundaryMesh;
    location    "constant/polyMesh";
    object      boundary;
}
// * * * * * * * * * * * * * * * * * * * * * * * * * * * * * * * * * * * * * //

5
(
    sides
    {
        type            empty;
        physicalType    empty;
        nFaces          7698;
        startFace       7543;
    }
    inlet
    {
        type            patch;
        physicalType    patch;
        nFaces          39;
        startFace       15241;
    }
    topBot
    {
        type            patch;
        physicalType    patch;
        nFaces          132;
        startFace       15280;
    }
    outlet
    {
        type            patch;
        physicalType    patch;
        nFaces          39;
        startFace       15412;
    }
    wall
    {
        type            wall;
        physicalType    wall;
        nFaces          100;
        startFace       15451;
    }
)

// ************************************************************************* //
